917
CSIRO Nanostructure Databank - Palladium Nanoparticle Data Set 
Pd 251.751 248.372 238.692
Pd 254 252.141 250.801
Pd 241.608 251.394 245.921
Pd 249.028 261.441 249.63
Pd 249.492 245.097 248.335
Pd 258.487 249.306 254.893
Pd 254.65 238.384 243.199
Pd 251.159 252.132 251.038
Pd 247.607 259.904 254.694
Pd 244.356 257.025 260.663
Pd 242.469 247.407 248.142
Pd 249.414 265.185 247.109
Pd 253.861 247.213 256.705
Pd 257.446 248.648 259.159
Pd 255.724 248.974 254.252
Pd 254.28 241.895 238.898
Pd 255.682 246.236 237.659
Pd 252.511 254.212 250.001
Pd 250.222 248.023 254.353
Pd 258.978 248.563 248.315
Pd 246.83 265.346 248.059
Pd 257.61 246.791 254.776
Pd 249.213 255.802 259.406
Pd 248.862 250.767 250.263
Pd 255.206 257.887 252.355
Pd 254.406 242.586 241.405
Pd 243.959 252.323 246.111
Pd 240.982 250.437 254.883
Pd 241.617 252.274 250.582
Pd 250.83 236.472 250.581
Pd 260.315 251.863 259.045
Pd 251.506 234.638 252.648
Pd 251.78 245.927 254.54
Pd 260.177 245.201 258.854
Pd 255.3 253.865 254.431
Pd 243.168 252.979 258.783
Pd 249.973 241.436 236.967
Pd 247.546 246.797 247.556
Pd 245.028 261.123 254.735
Pd 256.859 255.114 256.412
Pd 246.743 263.041 250.82
Pd 261.236 249.402 257.393
Pd 246.782 259.362 257.211
Pd 245.297 251.29 259.914
Pd 255.255 252.934 257.075
Pd 242.65 245.061 247.052
Pd 253.552 263.675 249.978
Pd 244.065 249.618 246.95
Pd 244.922 248.373 254.645
Pd 245.766 240.303 249.524
Pd 258.791 250.339 257.303
Pd 248.4 241.151 252.507
Pd 242.926 251.443 248.622
Pd 238.735 252.406 258.875
Pd 244.436 249.2 249.388
Pd 255.496 244.849 245.864
Pd 255.089 243.143 243.923
Pd 261.3 250.035 254.827
Pd 239.068 250.469 261.006
Pd 256.253 256.835 250.159
Pd 252.907 244.85 245.413
Pd 248.717 248.586 249.091
Pd 251.722 254.984 247.461
Pd 246.811 265.877 250.705
Pd 252.391 243.745 239.202
Pd 241.07 249.509 247.917
Pd 256.437 246.602 260.788
Pd 249.486 261.827 254.398
Pd 243.475 246.945 250.527
Pd 251.27 239.353 242.983
Pd 252.045 250.241 254.722
Pd 245.55 244.776 251.376
Pd 254.017 255.053 256.348
Pd 258.405 253.069 257.399
Pd 240.024 248.985 256.723
Pd 241.515 247.555 263.292
Pd 257.242 245.037 243.963
Pd 258.677 257.112 255.143
Pd 251.684 249.913 263.754
Pd 252.433 261.394 251.102
Pd 238.483 249.851 258.623
Pd 251.485 248.128 256.649
Pd 244.029 244.97 249.176
Pd 242.249 251.48 256.867
Pd 246.396 247.131 252.583
Pd 248.799 253.555 251.04
Pd 248.592 264.199 249.5
Pd 247.103 242.438 250.566
Pd 250.507 245.888 245.37
Pd 246.7 249.336 251.321
Pd 245.823 266.482 253.161
Pd 242.274 248.22 254.072
Pd 258.225 240.605 241.269
Pd 251.916 246.017 247.544
Pd 251.235 250.949 259.902
Pd 256.73 251.423 255.621
Pd 236.555 253.762 259.009
Pd 244.981 247.216 247.793
Pd 248.15 244.944 251.216
Pd 247.646 249.13 243.789
Pd 243.733 262.006 249.641
Pd 246.561 249.46 248.18
Pd 243.397 253.858 249.942
Pd 255.972 247.297 244.968
Pd 250.311 249.895 252.46
Pd 247.425 243.27 240.872
Pd 236.407 251.544 257.238
Pd 252.84 250.226 252.214
Pd 247.45 250.219 239.77
Pd 249.259 234.332 251.32
Pd 241.442 248.481 245.64
Pd 255.911 240.257 240.147
Pd 259.604 247.154 252.501
Pd 258.634 244.734 246.358
Pd 248.17 258.352 252.457
Pd 256.854 238.61 244.661
Pd 252.177 241.174 255.545
Pd 255.952 240.776 242.697
Pd 251.12 250.557 257.144
Pd 256.635 243.943 255.088
Pd 245.864 254.682 251.065
Pd 255.045 244.279 239.297
Pd 248.195 239.674 247.176
Pd 249.78 265.518 251.389
Pd 252.384 257.003 244.103
Pd 256.625 253.481 259.195
Pd 258.273 240.738 244.412
Pd 244.76 240.618 244.18
Pd 244.197 251.323 250.861
Pd 248.501 249.536 246.105
Pd 249.681 262.575 247.462
Pd 247.61 248.18 241.322
Pd 255.787 238.466 246.966
Pd 258.011 255.038 248.861
Pd 256.203 252.934 252.008
Pd 254.651 251.378 253.734
Pd 259.376 251.8 255.068
Pd 254.293 251.685 259.813
Pd 256.499 244.228 248.117
Pd 246.133 248.328 245.737
Pd 259.623 242.018 246.47
Pd 250.009 259.235 254.522
Pd 247.595 261.186 259.318
Pd 244.63 242.782 247.916
Pd 250.551 250.578 247.362
Pd 261.413 252.235 256.82
Pd 249.271 241.482 240.559
Pd 245.261 263.97 254.69
Pd 242.693 248.793 256.77
Pd 250.14 248.167 244.34
Pd 244.611 254.461 247.757
Pd 254.993 249.94 244.53
Pd 243.624 247.293 245.469
Pd 258.037 250.205 250.32
Pd 245.899 250.521 242.263
Pd 254.764 247.304 247.411
Pd 238.755 252.923 250.394
Pd 259.239 244.613 251.564
Pd 246.879 255.031 255.316
Pd 252.641 236.417 244.622
Pd 252.585 250.401 245.622
Pd 251.073 246.162 240.401
Pd 247.612 264.954 253.048
Pd 251.061 263.264 249.936
Pd 253.267 248.078 254.187
Pd 251.087 265.674 249.023
Pd 245.457 240.105 247.058
Pd 245.052 254.523 259.912
Pd 245.666 245.889 244.066
Pd 242.336 250.626 252.699
Pd 252.823 252.308 257.905
Pd 259.469 252.773 252.347
Pd 242.117 243.136 248.961
Pd 254.472 245.842 243.455
Pd 259.379 246.772 240.751
Pd 257.796 252.69 249.904
Pd 252.498 248.592 247.716
Pd 257.625 257.923 257.438
Pd 255.833 258.052 247.976
Pd 248.126 244.205 246.314
Pd 254.61 250.067 247.204
Pd 245.698 264.627 257.255
Pd 247.848 244.158 243.677
Pd 255.107 255.258 251.954
Pd 257.869 253.604 254.167
Pd 253.357 265.495 253.774
Pd 248.797 266.82 249.099
Pd 245.267 248.145 243.142
Pd 250.351 248.439 241.648
Pd 245.385 243.443 243.334
Pd 243.194 245.051 244.489
Pd 259.226 238.132 245.684
Pd 245.465 244.859 246.495
Pd 251.241 249.589 249.93
Pd 254.827 247.698 251.8
Pd 252.075 261.591 248.306
Pd 241.552 249.495 261.658
Pd 253.183 253.582 252.825
Pd 248.875 247.516 251.754
Pd 245.722 245.177 254.302
Pd 254.018 256.012 249.097
Pd 255.797 251.3 249.032
Pd 244.682 248.416 240.73
Pd 263.426 255.005 254.258
Pd 257.575 242.768 242.7
Pd 257.646 240.2 247.046
Pd 259.639 249.757 252.63
Pd 244.224 252.784 241.47
Pd 249.047 265.623 257.043
Pd 244.837 261.868 252.268
Pd 238.786 247.062 259.544
Pd 249.551 239.074 244.912
Pd 247.139 252.577 241.079
Pd 248.256 248.378 260.78
Pd 250.135 262.677 258.947
Pd 246.667 253.378 246.368
Pd 254.318 250.135 256.282
Pd 261.783 248.319 248.06
Pd 249.641 246.099 256.535
Pd 244.573 264.451 251.938
Pd 250.384 259.864 247.111
Pd 250.059 260.275 252.173
Pd 252.924 239.021 245.058
Pd 244.929 264.08 249.383
Pd 238.365 250.307 254.164
Pd 251.978 256.065 260.499
Pd 253.201 246.085 238.617
Pd 244.197 248.885 252.097
Pd 246.365 247.055 250.108
Pd 253.127 249.71 261.322
Pd 261.715 251.108 251.85
Pd 253.8 256.447 254.16
Pd 248.222 254.31 257.331
Pd 249.117 266.7 254.611
Pd 256.033 244.549 241.662
Pd 256.706 248.45 256.732
Pd 254.039 259.127 254.874
Pd 257.704 242.872 253.032
Pd 251.209 266.882 253.152
Pd 249.026 261.294 245.108
Pd 251.587 241.179 238.862
Pd 255.245 240.413 245.43
Pd 256.546 259.392 250.293
Pd 245.008 263.585 246.652
Pd 242.579 247.903 243.258
Pd 253.47 240.963 243.389
Pd 264.501 255.25 251.872
Pd 237.224 250.017 262.711
Pd 249.212 254.261 254.257
Pd 252.709 241.315 236.666
Pd 241.159 246.518 256.023
Pd 250.066 250.295 239.625
Pd 251.818 246.407 243.165
Pd 251.085 252.369 253.665
Pd 252.885 256.481 251.504
Pd 247.853 252.056 243.886
Pd 259.093 239.709 249.73
Pd 248.966 245.771 253.796
Pd 246.324 242.366 245.522
Pd 255.06 246.157 254.058
Pd 245.673 254.6 240.018
Pd 256.569 239.749 249.504
Pd 253.794 242.49 246.214
Pd 259.407 249.659 245.671
Pd 248.988 241.557 245.735
Pd 245.455 251.956 248.407
Pd 239.223 245.18 255.058
Pd 246.964 247.076 255.393
Pd 249.816 243.319 253.38
Pd 250.52 246.933 249.791
Pd 243.634 255.034 242.769
Pd 247.653 252.483 255.443
Pd 259.449 247.031 260.482
Pd 246.874 262.731 248.244
Pd 249.157 252.434 238.055
Pd 249.085 239.501 256.481
Pd 253.939 258.519 250.131
Pd 256.944 242.508 240.119
Pd 245.403 249.053 264.372
Pd 257.814 257.747 252.196
Pd 247.006 257.038 243.635
Pd 254.871 247.929 259.007
Pd 244.581 251.527 263.475
Pd 249.141 252.474 245.977
Pd 252.189 260.962 253.891
Pd 238.924 251.409 256.55
Pd 251.327 260.747 256.409
Pd 259.618 251.487 261.675
Pd 248.793 248.718 256.532
Pd 256.35 243.988 259.835
Pd 246.641 256.041 247.201
Pd 247.869 248.983 253.709
Pd 248.427 240.376 249.671
Pd 250.088 247.81 247.101
Pd 242.726 244.46 251.534
Pd 236.373 248.061 258.402
Pd 259.079 253.712 260.55
Pd 246.416 245.773 241.502
Pd 252.469 243.446 253.95
Pd 247.212 242.028 247.892
Pd 264.439 254.222 249.448
Pd 256.897 243.728 250.594
Pd 255.02 237.846 240.458
Pd 240.938 246.174 245.07
Pd 244.344 242.498 250.552
Pd 252.339 249.235 243.276
Pd 247.955 246.733 245.117
Pd 237.051 248.764 260.772
Pd 253.844 244.698 255.85
Pd 244.149 249.412 261.912
Pd 254.232 254.467 259.134
Pd 248.81 250.62 242.091
Pd 253.109 252.653 255.425
Pd 251.526 241.443 244.845
Pd 257.767 254.927 251.532
Pd 261.2 243.789 247.374
Pd 256.938 242.515 245.882
Pd 253.997 262.807 252.808
Pd 255.293 241.821 248.17
Pd 252.706 243.548 243.188
Pd 253.554 245.268 251.879
Pd 252.695 242.183 248.635
Pd 253.141 247.947 236.728
Pd 256.149 250.667 258.11
Pd 247.158 260.549 252.025
Pd 246.529 244.549 248.753
Pd 256.134 241.495 251.475
Pd 239.755 249.861 263.698
Pd 252.604 242.954 257.556
Pd 251.031 243.476 246.666
Pd 258.572 255.539 258.622
Pd 245.405 252.699 243.949
Pd 250.187 243.689 244.239
Pd 251.843 247.713 252.03
Pd 243.944 246.316 252.885
Pd 257.384 248.374 252.368
Pd 259.355 247.715 257.714
Pd 253.213 246.872 249.753
Pd 248.072 254.803 244.568
Pd 244.838 260.862 247.214
Pd 240.884 246.083 261.219
Pd 253.018 247.757 245.297
Pd 260.146 253.29 247.965
Pd 251.843 263.934 247.18
Pd 255.724 249.841 260.969
Pd 253.36 239.735 240.956
Pd 261.014 250.86 247.455
Pd 238.47 249.67 248.088
Pd 245.844 252.954 261.746
Pd 247.041 262.353 253.835
Pd 249.5 250.608 255.091
Pd 249.868 236.7 242.128
Pd 243.369 259.45 255.644
Pd 253.789 239.222 238.387
Pd 251.147 240.699 249.974
Pd 260.634 248.967 250.334
Pd 264.533 248.632 248.608
Pd 250.312 253.098 258.908
Pd 247.983 245.443 237.293
Pd 246.002 260.684 249.637
Pd 253.259 259.512 257.707
Pd 239.747 250.397 250.398
Pd 246.808 253.697 253.259
Pd 240.976 248.149 259.367
Pd 242.009 249.124 250.544
Pd 244.016 247.027 263.402
Pd 237.103 252.019 260.914
Pd 253.004 249.493 258.426
Pd 249.025 246.356 242.656
Pd 250.631 239.102 240.512
Pd 240.654 252.32 260.796
Pd 244.998 250.971 239.753
Pd 243.161 251.928 261.247
Pd 255.268 243.303 257.54
Pd 247.169 243.371 253.178
Pd 251.218 238.116 246.536
Pd 252.113 247.195 259.446
Pd 248.447 251.499 257.635
Pd 253.9 249.429 249.899
Pd 248.01 237.401 246.508
Pd 261.661 246.394 256.974
Pd 254.866 248.11 242.672
Pd 253.863 261.51 255.819
Pd 257.747 245.978 258.752
Pd 260.244 256.02 248.057
Pd 238.353 247.067 256.89
Pd 251.426 250.913 241.639
Pd 245.063 255.207 257.398
Pd 251.623 244.295 249.585
Pd 244.23 242.915 260.843
Pd 255.784 255.6 247.224
Pd 255.038 243.499 253.249
Pd 252.362 237.283 242.267
Pd 239.553 247.677 254.355
Pd 258.012 242.04 248.767
Pd 260.068 254.428 250.306
Pd 254.074 253.713 247.683
Pd 249.716 246.458 259.358
Pd 255.652 254.049 249.625
Pd 245.244 259.209 253.216
Pd 262.309 252.925 249.609
Pd 238.799 252.221 262.948
Pd 240.056 253.536 245.914
Pd 255.194 236.359 245.181
Pd 253.901 244.461 248.09
Pd 261.86 245.809 252.067
Pd 250.972 237.177 253.05
Pd 248.463 251.551 252.925
Pd 263.057 247.343 250.27
Pd 262.409 252.512 245.751
Pd 253.022 248.211 240.933
Pd 258.632 244.624 260.922
Pd 244.153 250.3 244.286
Pd 244.488 243.155 253.243
Pd 253.523 259.317 247.842
Pd 246.454 261.96 256.456
Pd 260.767 241.87 248.974
Pd 257.001 245.577 252.456
Pd 257.63 251.042 253
Pd 248.015 251.391 247.918
Pd 248.386 267.344 252.099
Pd 249.971 255.341 249.596
Pd 250.922 240.521 247.234
Pd 255.63 245.83 249.905
Pd 252.878 251.558 248.433
Pd 252.597 265.986 251.205
Pd 249.051 255.048 247.084
Pd 248.677 245.588 240.098
Pd 242.35 251.845 239.589
Pd 257.182 237.39 250.339
Pd 240.167 251.928 248.277
Pd 249.776 256.1 256.243
Pd 249.705 242.948 250.851
Pd 248.939 262.801 251.887
Pd 253.693 237.852 253.617
Pd 257.25 251.45 245.074
Pd 251.972 245.524 257.37
Pd 243.736 242.779 245.443
Pd 260.356 247.616 255.037
Pd 259.296 251.133 243.293
Pd 250.35 263.306 256.528
Pd 239.087 247.913 262.022
Pd 249.109 247.959 239.051
Pd 246.612 250.001 255.902
Pd 251.714 241.929 241.554
Pd 260.766 240.158 244.744
Pd 250.427 253.079 256.315
Pd 251.77 263.751 252.262
Pd 243.311 249.644 259.233
Pd 243.125 244.181 255.198
Pd 247.028 249.761 258.658
Pd 250.968 257.603 258.351
Pd 255.954 245.734 256.775
Pd 257.132 247.031 241.987
Pd 256.875 249.079 246.517
Pd 243 243.28 242.724
Pd 249.596 243.651 238.805
Pd 253.747 254.892 242.811
Pd 264.013 249.782 253.902
Pd 250.675 245.753 237.946
Pd 251.359 243.669 236.551
Pd 252.377 235.753 254.807
Pd 250.018 243.927 241.7
Pd 243.678 246.434 255.739
Pd 255.653 250.267 251.559
Pd 251.47 252.465 238.929
Pd 244.357 248.426 237.958
Pd 246.648 252.085 250.699
Pd 256.631 256.097 253.813
Pd 247.995 244.05 255.538
Pd 249.613 241.418 243.152
Pd 247.13 241.256 243.184
Pd 253.77 240.869 253.109
Pd 246.003 256.56 253.121
Pd 250.897 254.886 244.918
Pd 253.424 233.791 251.099
Pd 260 248.75 242.893
Pd 241.466 251.554 263.395
Pd 265.441 248.63 255.697
Pd 240.529 253.507 257.616
Pd 253.337 236.378 251.395
Pd 259.689 255.45 253.02
Pd 260.087 251.564 249.792
Pd 245.83 250.923 253.303
Pd 242.719 257.57 250.873
Pd 263.304 244.001 253.084
Pd 257.39 248.971 243.745
Pd 251.815 252.749 246.273
Pd 250.885 254.742 252.075
Pd 256.04 236.793 252.815
Pd 246.783 239.357 244.904
Pd 243.733 250.449 254.915
Pd 262.976 247.917 255.43
Pd 241.109 245.33 242.539
Pd 249.682 242.614 248.429
Pd 246.844 266.049 255.514
Pd 250.663 256.893 253.711
Pd 257.981 237.763 248.04
Pd 259.976 249.443 259.874
Pd 254.622 252.325 245.612
Pd 248.32 255.783 252.417
Pd 256.804 241.429 256.367
Pd 258.108 243.548 257.706
Pd 248.386 258.976 250.12
Pd 251.768 254.855 254.883
Pd 250.249 259.178 244.186
Pd 253.196 237.616 256.501
Pd 242.325 260.994 247.615
Pd 241.016 246.941 251.734
Pd 245.347 242.784 255.648
Pd 251.427 265.037 258.17
Pd 243.33 243.861 257.687
Pd 254.56 260.295 252.251
Pd 250.098 253.11 243.226
Pd 245.498 247.886 259.871
Pd 242.799 249.549 264.251
Pd 252.55 252.478 243.709
Pd 251.187 259.646 249.787
Pd 252.321 242.496 251.507
Pd 255.906 262.391 251.253
Pd 246.427 258.387 248.333
Pd 250.549 251.922 262.228
Pd 239.165 250.739 245.793
Pd 261.029 243.899 256.331
Pd 246.823 240.496 240.46
Pd 246.231 250.864 245.796
Pd 254.607 242.219 255.256
Pd 244.338 255.282 254.554
Pd 252.072 257.472 255.978
Pd 256.786 251.107 242.337
Pd 246.081 238.895 242.433
Pd 250.352 250.716 244.307
Pd 253.357 245.093 241.328
Pd 249.948 264.473 253.93
Pd 264.204 249.285 251.482
Pd 261.977 254.083 252.174
Pd 247.78 253.468 259.905
Pd 263.985 252.3 251.624
Pd 251.269 239.145 237.548
Pd 247.571 256.365 249.932
Pd 252.437 237.445 239.836
Pd 248.818 261.249 256.943
Pd 243.702 255.665 252.026
Pd 246.117 252.845 257.876
Pd 247.425 247.097 258.065
Pd 258.996 245.51 256.452
Pd 241.26 250.23 243.582
Pd 247.029 240.793 254.716
Pd 244.715 256.459 249.433
Pd 245.87 253.676 264.054
Pd 262.812 250.301 249.44
Pd 255.903 235.87 248.008
Pd 262.258 254.838 256.604
Pd 244.639 250.797 257.422
Pd 245.114 248.141 257.396
Pd 249.991 249.004 258.841
Pd 249.694 252.777 240.625
Pd 242.9 254.2 256.568
Pd 245.704 258.283 251.032
Pd 250.802 257.19 246.118
Pd 254.146 251.006 242.09
Pd 249.179 235.759 253.683
Pd 243.033 254.723 245.559
Pd 251.189 234.005 249.742
Pd 245.036 252.809 255.39
Pd 253.852 243.982 236.843
Pd 248.388 258.375 259.312
Pd 261.915 245.569 254.534
Pd 251.062 240.787 252.86
Pd 247.991 252.472 262.84
Pd 261.214 253.805 254.504
Pd 254.098 234.943 253.251
Pd 241.574 245.559 253.733
Pd 246.262 246.029 264.48
Pd 248.625 251 260.439
Pd 253.981 240.591 250.117
Pd 259.512 254.831 255.919
Pd 249.367 258.719 256.849
Pd 250.845 245.353 251.897
Pd 258.334 257.749 249.038
Pd 247.98 257.383 254.745
Pd 253.051 250.431 239.641
Pd 252.558 258.758 260.293
Pd 259.129 244.504 248.892
Pd 256.153 254.766 244.73
Pd 260.23 246.42 247.266
Pd 254.361 243.403 250.454
Pd 258.352 251.079 247.688
Pd 254.599 248.63 238.567
Pd 243.653 259.918 251.119
Pd 262.057 248.343 252.694
Pd 243.789 257.034 246.645
Pd 254.35 245.358 258.792
Pd 240.965 250.724 258.801
Pd 247.465 255.181 262.062
Pd 245.34 255.305 245.006
Pd 266.28 250.974 252.258
Pd 259.357 243.569 244.294
Pd 247.857 247.838 236.64
Pd 263.966 252.15 247.75
Pd 252.268 258.702 252.668
Pd 248.664 254.802 241.894
Pd 244.308 253.13 252.591
Pd 250.203 252.922 248.598
Pd 250.793 248.641 261.477
Pd 261.268 248.011 245.264
Pd 242.371 256.272 248.717
Pd 250.784 243.669 255.81
Pd 251.501 246.25 261.864
Pd 263.353 247.066 246.389
Pd 246.724 256.248 259.714
Pd 255.184 246.761 240.395
Pd 266.634 249.137 250.407
Pd 258.161 246.742 250.294
Pd 250.148 257.722 261.046
Pd 253.517 239.9 247.416
Pd 252.604 262.767 257.656
Pd 252.295 263.414 254.88
Pd 242.729 245.148 262.567
Pd 260.799 254.849 245.864
Pd 247.908 263.816 255.7
Pd 250.258 257.543 251.045
Pd 242.367 252.74 254.481
Pd 244.598 243.839 240.765
Pd 250.17 260.075 258.922
Pd 248.729 239.136 242.083
Pd 240.033 253.35 255.01
Pd 256.678 253.001 247.16
Pd 249.537 238.241 248.819
Pd 259.673 252.265 245.652
Pd 242.162 241.201 243.708
Pd 243.216 253.649 263.499
Pd 246.561 250.212 261.93
Pd 258.008 256.736 246.732
Pd 256.114 256.215 258.782
Pd 245.395 244.951 262.119
Pd 238.623 254.093 260.887
Pd 241.974 257.274 244.777
Pd 258.536 247.326 245.34
Pd 241.202 245.664 249.298
Pd 242.879 255.876 258.83
Pd 257.327 246.6 247.587
Pd 257.803 253.3 262.78
Pd 248.833 246.017 265.245
Pd 247.818 248.396 264.666
Pd 248.286 257.585 245.788
Pd 256.26 248.494 249.339
Pd 244.684 241.461 241.639
Pd 253.499 256.985 246.645
Pd 265.485 246.909 251.175
Pd 264.249 253.193 256.029
Pd 246.624 247.266 238.822
Pd 250.3 241.506 257.625
Pd 260.576 246.59 249.846
Pd 243.309 240.742 248.529
Pd 247.527 259.676 244.333
Pd 250.988 247.328 264.235
Pd 247.9 260.523 247.37
Pd 253.535 237.043 247.092
Pd 245.583 245.226 256.97
Pd 256.616 255.068 261.215
Pd 249.337 257.508 248.264
Pd 239.467 247.908 249.856
Pd 240.108 244.337 247.124
Pd 251.357 265.841 255.705
Pd 250.021 244.01 258.241
Pd 253.464 256.949 258.245
Pd 259.35 246.259 243.146
Pd 247.779 241.954 256.987
Pd 245.575 246.029 236.829
Pd 257.325 260.467 252.578
Pd 255.499 235.35 250.486
Pd 248.978 246.688 262.644
Pd 252.852 253.071 241.116
Pd 243.886 246.08 241.972
Pd 248.697 239.791 238.614
Pd 245.515 242.589 258.353
Pd 251.391 238.971 254.695
Pd 248.799 238.602 253.955
Pd 252.193 238.22 249.237
Pd 262.158 241.522 246.525
Pd 253.493 235.256 249.128
Pd 251.825 257.275 248.812
Pd 254.665 261.307 258.918
Pd 258.141 248.804 261.777
Pd 252.091 244.512 259.832
Pd 259.191 238.911 242.996
Pd 244.809 257.731 258.144
Pd 249.535 256.872 243.407
Pd 241.926 247.381 240.773
Pd 238.826 250.079 243.07
Pd 247.519 242.087 238.368
Pd 259.336 244.848 254.033
Pd 251.389 255.247 242.195
Pd 255.268 257.403 256.401
Pd 260.063 241.742 242.604
Pd 264.122 246.894 253.331
Pd 239.222 254.513 252.54
Pd 243.023 257.007 256.375
Pd 240.012 247.769 242.792
Pd 244.441 257.401 244.079
Pd 247.462 245.887 260.516
Pd 246.302 244.466 238.964
Pd 252.58 238.939 251.629
Pd 257.53 245.231 239.564
Pd 255.266 263.928 254.704
Pd 261.317 245.344 245.127
Pd 254.293 254.431 262.054
Pd 250.258 244.554 263.568
Pd 248.378 236.876 251.251
Pd 255.381 258.697 258.931
Pd 246.488 261.662 245.409
Pd 253.211 252.155 262.454
Pd 246.907 256.859 240.925
Pd 239.837 251.909 252.769
Pd 255.572 249.428 240.763
Pd 255.308 252.956 243.237
Pd 247.23 239.214 251.593
Pd 259.198 242.099 250.99
Pd 258.299 249.38 241.046
Pd 247.011 238.101 249.132
Pd 263.543 250.663 256.504
Pd 241.829 253.803 247.811
Pd 247.81 263.743 258.545
Pd 240.718 256.665 252.409
Pd 240.712 254.079 262.779
Pd 249.778 254.128 261.384
Pd 242.004 256.725 242.2
Pd 246.991 251.021 264.622
Pd 263.109 252.209 254.081
Pd 258.205 253.427 243.533
Pd 237.688 252.174 247.765
Pd 241.365 260.014 249.74
Pd 261.092 253.234 243.657
Pd 240.68 256.002 257.085
Pd 249.794 244.418 261.025
Pd 259.054 244.354 241.459
Pd 261.697 250.436 244.506
Pd 240.868 258.216 254.725
Pd 255.834 260.077 256.746
Pd 257.224 250.843 263.121
Pd 241.448 242.103 246.785
Pd 263.261 249.805 246.474
Pd 260.845 243.021 253.094
Pd 240.025 247.08 247.298
Pd 243.022 240.218 245.952
Pd 242.702 252.777 243.848
Pd 253.66 264.856 256.541
Pd 247.594 244.443 258.322
Pd 247.333 256.839 257.335
Pd 263.382 244.256 246.283
Pd 256.576 240.582 253.953
Pd 247.4 253.952 248.84
Pd 253.485 254.763 245.302
Pd 262.126 256.57 252.372
Pd 246.244 254.625 242.548
Pd 253.992 242.652 259.817
Pd 252.518 259.202 245.46
Pd 239.656 252.427 243.618
Pd 245.022 245.232 259.578
Pd 256.575 258.739 254.587
Pd 243.161 247.206 260.775
Pd 240.709 249.937 241.162
Pd 243.733 258.882 248.705
Pd 250.723 254.732 239.7
Pd 246.433 247.406 262.357
Pd 239.037 255.722 254.956
Pd 252.898 245.235 263.704
Pd 255.272 238.957 251.789
Pd 249.067 249.677 263.05
Pd 249.558 241.423 255.013
Pd 243.031 246.444 258.243
Pd 250.119 236.401 244.81
Pd 263.359 243.078 248.636
Pd 259.943 256.913 250.703
Pd 257.923 251.177 259.937
Pd 238.968 248.294 245.03
Pd 260.691 254.209 258.427
Pd 249.781 245.744 235.457
Pd 242.886 254.758 240.162
Pd 251.77 254.926 257.836
Pd 238.667 255.228 258.47
Pd 249.491 242.281 262.175
Pd 248.117 254.712 239.327
Pd 257.621 236.049 246.088
Pd 245.518 257.54 255.56
Pd 262.718 245.683 248.321
Pd 243.185 250.331 241.892
Pd 261.89 242.826 244.453
Pd 257.182 248.025 239.221
Pd 240.589 254.852 250.126
Pd 241.374 252.588 241.731
Pd 242.555 249.212 239.371
Pd 241.669 254.042 252.383
Pd 254.733 237.873 249.434
Pd 254.011 247.264 261.431
Pd 241.37 258.49 247.446
Pd 254.546 250.433 263.786
Pd 241.877 261.844 251.42
Pd 261.366 244.07 250.229
Pd 240.147 249.286 252.623
Pd 253.385 248.041 263.896
Pd 242.797 254.543 261.174
Pd 260.394 256.772 257.432
Pd 260.278 239.75 247.333
Pd 243.087 257.625 253.581
Pd 250.134 263.787 245.054
Pd 263.991 244.835 250.649
Pd 262.069 246.922 243.131
Pd 255.934 252.293 261.466
Pd 260.186 258.213 252.992
Pd 241.093 243.451 244.605
Pd 248.595 241.922 259.619
Pd 235.268 251.828 248.487
Pd 240.629 256.084 246.557
Pd 240.696 254.848 259.954
Pd 261.741 247.47 259.26
Pd 241.065 259.205 252.088
Pd 258.895 242.528 255.399
Pd 236.18 249.463 247.318
Pd 252.022 243.255 262.157
Pd 244.093 262.678 256.577
Pd 251.23 242.02 260.039
Pd 265.956 250.984 254.918
Pd 262.739 254.569 247.454
Pd 254.538 256.631 260.61
Pd 252.431 253.316 260.459
Pd 241.609 255.516 254.594
Pd 242.185 244.619 240.27
Pd 255.565 245.806 263.455
Pd 257.865 246.418 262.869
Pd 254.505 239.485 255.346
Pd 265.497 253.185 253.568
Pd 240.99 254.655 243.916
Pd 247.705 238.015 240.197
Pd 266.079 248.661 252.998
Pd 240.31 257.419 249.819
Pd 256.012 248.366 263.078
Pd 250.486 237.148 256.056
Pd 242.381 244.18 260.091
Pd 244.183 246.09 239.362
Pd 265.375 251.188 249.613
Pd 258.38 254.428 246.065
Pd 250.445 248.038 236.587
Pd 254.28 244.652 261.518
Pd 245.824 258.635 245.869
Pd 236.04 251.061 254.758
Pd 237.925 253.632 256.521
Pd 248.503 235.742 249.245
Pd 237.499 250.881 249.859
Pd 248.454 258.717 242.037
Pd 257.806 239.321 251.968
Pd 251.708 261.635 245.642
Pd 248.914 250.039 237.298
Pd 252.181 245.87 235.775
Pd 257.004 238.46 241.778
Pd 243.246 259.533 245.743
Pd 247.585 263.729 245.964
Pd 246.971 243.26 260.701
Pd 261.312 256.554 254.797
Pd 262.441 255.611 249.883
Pd 263.862 248.432 257.867
Pd 237.22 249.397 256.376
Pd 251.442 236.13 247.847
Pd 254.524 261.07 249.543
Pd 251.604 250.405 237.349
Pd 255.948 261.414 254.38
Pd 243.596 262.021 245.352
Pd 240.723 242.625 241.977
Pd 255.609 262.994 257.036
Pd 259.341 240.849 253.607
Pd 245.057 241.996 239.024
Pd 249.856 238.92 251.508
Pd 240.589 245.677 258.473
Pd 246.246 249.783 237.182
Pd 243.735 250.884 237.597
Pd 266.207 253.269 250.995
Pd 262.682 242.342 251.197
Pd 251.723 239.395 257.575
Pd 244.813 260.282 243.88
Pd 247.755 244.247 262.85
Pd 238.947 254.598 248.198
Pd 252.147 261.257 259.679
Pd 255.508 252.898 263.89
Pd 260.922 240.283 251.429
Pd 240.866 243.824 256.409
Pd 242.628 260.389 253.577
Pd 245.743 241.198 252.445
Pd 244.321 256.895 241.084
Pd 242.969 262.888 253.818
Pd 245.205 263.441 244.078
Pd 253.955 240.763 257.596
Pd 250.629 267.771 250.773
Pd 242.949 259.055 242.594
Pd 244.885 255.35 262.598
Pd 245.731 258.86 242.066
Pd 259.186 259.537 250.887
Pd 242.499 242.119 240.277
Pd 246.575 252.309 238.421
Pd 243.791 243.982 238.011
Pd 246 259.212 259.845
Pd 245.483 262.6 258.884
Pd 246.309 243.323 236.624
Pd 257.941 236.705 243.654
Pd 237.58 252.863 254.131
Pd 254.826 264.966 251.78
Pd 244.47 260.366 257.731
Pd 249.55 256.896 240.719
Pd 255.03 236.6 255.18
Pd 247.965 237.246 243.54
Pd 244.144 253.278 238.643
Pd 261.445 244.521 242.642
Pd 248.638 243.26 235.848
Pd 238.576 244.513 257.403
Pd 236.05 250.393 259.278
Pd 248.89 234.922 246.957
Pd 243.221 241.778 258.205
